 20
c10h10_aggregates_ag_a_010_b_010_008_selected_result_018_001_ag_a_010_b_010.xyz
C      0.89203    -0.46304     0.84038
H      0.91568    -2.34350     1.82212
H     -2.66065    -0.42118    -4.22736
H      2.50280    -1.78872     1.26292
C      1.21537     0.00724    -0.35907
C      1.55910    -1.47098     1.70100
C     -1.73380    -0.10509    -2.20093
C     -2.21966    -0.26337    -3.28935
C      0.12631     0.97878    -0.77943
C     -1.13145     0.12137    -0.95929
C     -0.20269     1.58602     0.59438
H      1.74921    -1.05886     2.69238
H      0.36280     1.64980    -1.60011
H      2.05247    -0.25248    -0.97875
C     -0.43112     0.20187     1.22718
H     -0.69759     0.15446     2.27983
C     -1.45627    -0.34187     0.25185
H      0.63263     2.13060     1.03457
H     -1.09436     2.21386     0.59120
H     -2.25425    -1.00888     0.51858
